LTspice 24.0.12 for Windows
Circuit: * C:\Users\taf27\Desktop\Class-E-Optimization\GaN_Class_E.asc
Start Time: Mon Jun 17 22:39:17 2024
solver = Normal
Maximum thread count: 2
tnom = 27
temp = 27
method = modified trap
Direct Newton iteration for .op point succeeded.
N-Period=50
Fourier components of V(vout)
DC component:0.418249

Harmonic	Frequency	 Fourier 	Normalized	 Phase  	Normalized
 Number 	  [Hz]   	Component	 Component	[degree]	Phase [deg]
    1   	 3.940e+7	 5.498e+1	 1.000e+0	   67.42°	    0.00°
    2   	 7.880e+7	 7.058e-1	 1.284e-2	    9.42°	  -57.99°
    3   	 1.182e+8	 4.487e-2	 8.161e-4	 -164.94°	 -232.35°
    4   	 1.576e+8	 8.983e-2	 1.634e-3	   91.39°	   23.98°
    5   	 1.970e+8	 3.549e-2	 6.456e-4	  145.43°	   78.02°
    6   	 2.364e+8	 4.113e-2	 7.480e-4	   76.48°	    9.06°
    7   	 2.758e+8	 4.249e-2	 7.728e-4	  131.52°	   64.10°
    8   	 3.152e+8	 1.068e-2	 1.943e-4	   69.42°	    2.00°
    9   	 3.546e+8	 3.192e-2	 5.805e-4	  103.58°	   36.16°
   10   	 3.940e+8	 1.321e-2	 2.402e-4	  129.07°	   61.66°
Partial Harmonic Distortion: 1.304365%
Total Harmonic Distortion:   0.000000%



dc_power: AVG(v(vdd)*i(v2))=-9.49873 FROM 0 TO 1e-06
power_out: AVG(v(vout)*i(r2))=7.54399 FROM 0 TO 1e-06
gate_power: AVG(v(vin)*i(v1))=-0.416221 FROM 0 TO 1e-06

Total elapsed time: 3.136 seconds.

