Circuit: * C:\Users\taf27\Documents\IndependentStudy\LTSPICE_GaN\GaN_Class_E.asc

Direct Newton iteration for .op point succeeded.

Date: Tue Mar 26 23:43:15 2024
Total elapsed time: 1.179 seconds.

tnom = 27
temp = 27
method = modified trap
totiter = 308775
traniter = 308771
tranpoints = 92840
accept = 72616
rejected = 20224
matrix size = 11
fillins = 1
solver = Normal
Matrix Compiler1: 494 bytes object code size  0.1/0.1/[0.1]
Matrix Compiler2: 793 bytes object code size  0.1/0.1/[0.1]

