LTspice 24.0.12 for Windows
Circuit: * C:\Users\taf27\Desktop\Class-E-Optimization\EPCGaNLibrary\Draft2.asc
Start Time: Tue Jun  4 21:43:01 2024
solver = Normal
Maximum thread count: 2
tnom = 27
temp = 27
method = modified trap
.OP point found by inspection.
N-Period=1
Fourier components of V(vout)
DC component:4.97553e-05

Harmonic	Frequency	 Fourier 	Normalized	 Phase  	Normalized
 Number 	  [Hz]   	Component	 Component	[degree]	Phase [deg]
    1   	 5.000e+7	 9.934e-1	 1.000e+0	   89.90°	    0.00°
    2   	 1.000e+8	 9.921e-5	 9.986e-5	   -6.29°	  -96.19°
    3   	 1.500e+8	 6.657e-3	 6.701e-3	 -107.01°	 -196.91°
    4   	 2.000e+8	 9.831e-5	 9.896e-5	  -12.56°	 -102.46°
    5   	 2.500e+8	 1.772e-3	 1.784e-3	 -138.91°	 -228.81°
    6   	 3.000e+8	 9.684e-5	 9.748e-5	  -18.81°	 -108.71°
    7   	 3.500e+8	 1.751e-3	 1.762e-3	 -157.07°	 -246.97°
    8   	 4.000e+8	 9.482e-5	 9.544e-5	  -25.01°	 -114.91°
    9   	 4.500e+8	 2.028e-3	 2.042e-3	  178.61°	   88.71°
   10   	 5.000e+8	 9.226e-5	 9.287e-5	  -31.14°	 -121.04°
Partial Harmonic Distortion: 0.744320%
Total Harmonic Distortion:   0.822736%


Total elapsed time: 0.171 seconds.

